[root]
type=Root
children=system
eventq_index=0
full_system=false
sim_quantum=0
time_sync_enable=false
time_sync_period=100000000000
time_sync_spin_threshold=100000000

[system]
type=System
children=clk_domain cpu00 cpu01 cpu02 cpu03 cpu04 cpu05 cpu06 cpu07 cpu08 cpu09 cpu10 cpu11 cpu12 cpu13 cpu14 cpu15 cpu16 cpu17 cpu18 cpu19 cpu20 cpu21 cpu22 cpu23 cpu24 cpu25 cpu26 cpu27 cpu28 cpu29 cpu30 cpu31 cpu32 cpu33 cpu34 cpu35 cpu36 cpu37 cpu38 cpu39 cpu40 cpu41 cpu42 cpu43 cpu44 cpu45 cpu46 cpu47 cpu48 cpu49 cpu50 cpu51 cpu52 cpu53 cpu54 cpu55 cpu56 cpu57 cpu58 cpu59 cpu60 cpu61 cpu62 cpu63 dvfs_handler mem_ctrls00 mem_ctrls01 mem_ctrls02 mem_ctrls03 mem_ctrls04 mem_ctrls05 mem_ctrls06 mem_ctrls07 mem_ctrls08 mem_ctrls09 mem_ctrls10 mem_ctrls11 mem_ctrls12 mem_ctrls13 mem_ctrls14 mem_ctrls15 mem_ctrls16 mem_ctrls17 mem_ctrls18 mem_ctrls19 mem_ctrls20 mem_ctrls21 mem_ctrls22 mem_ctrls23 mem_ctrls24 mem_ctrls25 mem_ctrls26 mem_ctrls27 mem_ctrls28 mem_ctrls29 mem_ctrls30 mem_ctrls31 mem_ctrls32 mem_ctrls33 mem_ctrls34 mem_ctrls35 mem_ctrls36 mem_ctrls37 mem_ctrls38 mem_ctrls39 mem_ctrls40 mem_ctrls41 mem_ctrls42 mem_ctrls43 mem_ctrls44 mem_ctrls45 mem_ctrls46 mem_ctrls47 mem_ctrls48 mem_ctrls49 mem_ctrls50 mem_ctrls51 mem_ctrls52 mem_ctrls53 mem_ctrls54 mem_ctrls55 mem_ctrls56 mem_ctrls57 mem_ctrls58 mem_ctrls59 mem_ctrls60 mem_ctrls61 mem_ctrls62 mem_ctrls63 redirect_paths0 redirect_paths1 redirect_paths2 ruby sys_port_proxy voltage_domain
byte_order=little
cache_line_size=64
eventq_index=0
exit_on_work_items=false
init_param=0
kvm_vm=Null
m5ops_base=4294901760
mem_mode=timing
mem_ranges=0:536870912
memories=system.mem_ctrls00.dram system.mem_ctrls01.dram system.mem_ctrls02.dram system.mem_ctrls03.dram system.mem_ctrls04.dram system.mem_ctrls05.dram system.mem_ctrls06.dram system.mem_ctrls07.dram system.mem_ctrls08.dram system.mem_ctrls09.dram system.mem_ctrls10.dram system.mem_ctrls11.dram system.mem_ctrls12.dram system.mem_ctrls13.dram system.mem_ctrls14.dram system.mem_ctrls15.dram system.mem_ctrls16.dram system.mem_ctrls17.dram system.mem_ctrls18.dram system.mem_ctrls19.dram system.mem_ctrls20.dram system.mem_ctrls21.dram system.mem_ctrls22.dram system.mem_ctrls23.dram system.mem_ctrls24.dram system.mem_ctrls25.dram system.mem_ctrls26.dram system.mem_ctrls27.dram system.mem_ctrls28.dram system.mem_ctrls29.dram system.mem_ctrls30.dram system.mem_ctrls31.dram system.mem_ctrls32.dram system.mem_ctrls33.dram system.mem_ctrls34.dram system.mem_ctrls35.dram system.mem_ctrls36.dram system.mem_ctrls37.dram system.mem_ctrls38.dram system.mem_ctrls39.dram system.mem_ctrls40.dram system.mem_ctrls41.dram system.mem_ctrls42.dram system.mem_ctrls43.dram system.mem_ctrls44.dram system.mem_ctrls45.dram system.mem_ctrls46.dram system.mem_ctrls47.dram system.mem_ctrls48.dram system.mem_ctrls49.dram system.mem_ctrls50.dram system.mem_ctrls51.dram system.mem_ctrls52.dram system.mem_ctrls53.dram system.mem_ctrls54.dram system.mem_ctrls55.dram system.mem_ctrls56.dram system.mem_ctrls57.dram system.mem_ctrls58.dram system.mem_ctrls59.dram system.mem_ctrls60.dram system.mem_ctrls61.dram system.mem_ctrls62.dram system.mem_ctrls63.dram
mmap_using_noreserve=false
multi_thread=false
num_work_ids=16
readfile=
redirect_paths=system.redirect_paths0 system.redirect_paths1 system.redirect_paths2
shared_backstore=
symbolfile=
thermal_components=
thermal_model=Null
work_begin_ckpt_count=0
work_begin_cpu_id_exit=-1
work_begin_exit_count=0
work_cpus_ckpt_count=0
work_end_ckpt_count=0
work_end_exit_count=0
work_item_id=-1
workload=Null
system_port=system.sys_port_proxy.in_ports[0]

[system.clk_domain]
type=SrcClockDomain
clock=1000
domain_id=-1
eventq_index=0
init_perf_level=0
voltage_domain=system.voltage_domain

[system.cpu00]
type=GarnetSyntheticTraffic
children=power_state
block_offset=6
clk_domain=system.clk_domain
eventq_index=0
inj_rate=0.8
inj_vnet=-1
memory_size=65536
num_dest=64
num_packets_max=-1
power_model=
power_state=system.cpu00.power_state
precision=3
response_limit=5000000
sim_cycles=100000
single_dest=-1
single_sender=-1
system=system
traffic_type=shuffle
test=system.ruby.l1_cntrl0.sequencer.in_ports[0]

[system.cpu00.power_state]
type=PowerState
clk_gate_bins=20
clk_gate_max=1000000000000
clk_gate_min=1000
default_state=UNDEFINED
eventq_index=0
leaders=
possible_states=

[system.cpu01]
type=GarnetSyntheticTraffic
children=power_state
block_offset=6
clk_domain=system.clk_domain
eventq_index=0
inj_rate=0.8
inj_vnet=-1
memory_size=65536
num_dest=64
num_packets_max=-1
power_model=
power_state=system.cpu01.power_state
precision=3
response_limit=5000000
sim_cycles=100000
single_dest=-1
single_sender=-1
system=system
traffic_type=shuffle
test=system.ruby.l1_cntrl1.sequencer.in_ports[0]

[system.cpu01.power_state]
type=PowerState
clk_gate_bins=20
clk_gate_max=1000000000000
clk_gate_min=1000
default_state=UNDEFINED
eventq_index=0
leaders=
possible_states=

[system.cpu02]
type=GarnetSyntheticTraffic
children=power_state
block_offset=6
clk_domain=system.clk_domain
eventq_index=0
inj_rate=0.8
inj_vnet=-1
memory_size=65536
num_dest=64
num_packets_max=-1
power_model=
power_state=system.cpu02.power_state
precision=3
response_limit=5000000
sim_cycles=100000
single_dest=-1
single_sender=-1
system=system
traffic_type=shuffle
test=system.ruby.l1_cntrl2.sequencer.in_ports[0]

[system.cpu02.power_state]
type=PowerState
clk_gate_bins=20
clk_gate_max=1000000000000
clk_gate_min=1000
default_state=UNDEFINED
eventq_index=0
leaders=
possible_states=

[system.cpu03]
type=GarnetSyntheticTraffic
children=power_state
block_offset=6
clk_domain=system.clk_domain
eventq_index=0
inj_rate=0.8
inj_vnet=-1
memory_size=65536
num_dest=64
num_packets_max=-1
power_model=
power_state=system.cpu03.power_state
precision=3
response_limit=5000000
sim_cycles=100000
single_dest=-1
single_sender=-1
system=system
traffic_type=shuffle
test=system.ruby.l1_cntrl3.sequencer.in_ports[0]

[system.cpu03.power_state]
type=PowerState
clk_gate_bins=20
clk_gate_max=1000000000000
clk_gate_min=1000
default_state=UNDEFINED
eventq_index=0
leaders=
possible_states=

[system.cpu04]
type=GarnetSyntheticTraffic
children=power_state
block_offset=6
clk_domain=system.clk_domain
eventq_index=0
inj_rate=0.8
inj_vnet=-1
memory_size=65536
num_dest=64
num_packets_max=-1
power_model=
power_state=system.cpu04.power_state
precision=3
response_limit=5000000
sim_cycles=100000
single_dest=-1
single_sender=-1
system=system
traffic_type=shuffle
test=system.ruby.l1_cntrl4.sequencer.in_ports[0]

[system.cpu04.power_state]
type=PowerState
clk_gate_bins=20
clk_gate_max=1000000000000
clk_gate_min=1000
default_state=UNDEFINED
eventq_index=0
leaders=
possible_states=

[system.cpu05]
type=GarnetSyntheticTraffic
children=power_state
block_offset=6
clk_domain=system.clk_domain
eventq_index=0
inj_rate=0.8
inj_vnet=-1
memory_size=65536
num_dest=64
num_packets_max=-1
power_model=
power_state=system.cpu05.power_state
precision=3
response_limit=5000000
sim_cycles=100000
single_dest=-1
single_sender=-1
system=system
traffic_type=shuffle
test=system.ruby.l1_cntrl5.sequencer.in_ports[0]

[system.cpu05.power_state]
type=PowerState
clk_gate_bins=20
clk_gate_max=1000000000000
clk_gate_min=1000
default_state=UNDEFINED
eventq_index=0
leaders=
possible_states=

[system.cpu06]
type=GarnetSyntheticTraffic
children=power_state
block_offset=6
clk_domain=system.clk_domain
eventq_index=0
inj_rate=0.8
inj_vnet=-1
memory_size=65536
num_dest=64
num_packets_max=-1
power_model=
power_state=system.cpu06.power_state
precision=3
response_limit=5000000
sim_cycles=100000
single_dest=-1
single_sender=-1
system=system
traffic_type=shuffle
test=system.ruby.l1_cntrl6.sequencer.in_ports[0]

[system.cpu06.power_state]
type=PowerState
clk_gate_bins=20
clk_gate_max=1000000000000
clk_gate_min=1000
default_state=UNDEFINED
eventq_index=0
leaders=
possible_states=

[system.cpu07]
type=GarnetSyntheticTraffic
children=power_state
block_offset=6
clk_domain=system.clk_domain
eventq_index=0
inj_rate=0.8
inj_vnet=-1
memory_size=65536
num_dest=64
num_packets_max=-1
power_model=
power_state=system.cpu07.power_state
precision=3
response_limit=5000000
sim_cycles=100000
single_dest=-1
single_sender=-1
system=system
traffic_type=shuffle
test=system.ruby.l1_cntrl7.sequencer.in_ports[0]

[system.cpu07.power_state]
type=PowerState
clk_gate_bins=20
clk_gate_max=1000000000000
clk_gate_min=1000
default_state=UNDEFINED
eventq_index=0
leaders=
possible_states=

[system.cpu08]
type=GarnetSyntheticTraffic
children=power_state
block_offset=6
clk_domain=system.clk_domain
eventq_index=0
inj_rate=0.8
inj_vnet=-1
memory_size=65536
num_dest=64
num_packets_max=-1
power_model=
power_state=system.cpu08.power_state
precision=3
response_limit=5000000
sim_cycles=100000
single_dest=-1
single_sender=-1
system=system
traffic_type=shuffle
test=system.ruby.l1_cntrl8.sequencer.in_ports[0]

[system.cpu08.power_state]
type=PowerState
clk_gate_bins=20
clk_gate_max=1000000000000
clk_gate_min=1000
default_state=UNDEFINED
eventq_index=0
leaders=
possible_states=

[system.cpu09]
type=GarnetSyntheticTraffic
children=power_state
block_offset=6
clk_domain=system.clk_domain
eventq_index=0
inj_rate=0.8
inj_vnet=-1
memory_size=65536
num_dest=64
num_packets_max=-1
power_model=
power_state=system.cpu09.power_state
precision=3
response_limit=5000000
sim_cycles=100000
single_dest=-1
single_sender=-1
system=system
traffic_type=shuffle
test=system.ruby.l1_cntrl9.sequencer.in_ports[0]

[system.cpu09.power_state]
type=PowerState
clk_gate_bins=20
clk_gate_max=1000000000000
clk_gate_min=1000
default_state=UNDEFINED
eventq_index=0
leaders=
possible_states=

[system.cpu10]
type=GarnetSyntheticTraffic
children=power_state
block_offset=6
clk_domain=system.clk_domain
eventq_index=0
inj_rate=0.8
inj_vnet=-1
memory_size=65536
num_dest=64
num_packets_max=-1
power_model=
power_state=system.cpu10.power_state
precision=3
response_limit=5000000
sim_cycles=100000
single_dest=-1
single_sender=-1
system=system
traffic_type=shuffle
test=system.ruby.l1_cntrl10.sequencer.in_ports[0]

[system.cpu10.power_state]
type=PowerState
clk_gate_bins=20
clk_gate_max=1000000000000
clk_gate_min=1000
default_state=UNDEFINED
eventq_index=0
leaders=
possible_states=

[system.cpu11]
type=GarnetSyntheticTraffic
children=power_state
block_offset=6
clk_domain=system.clk_domain
eventq_index=0
inj_rate=0.8
inj_vnet=-1
memory_size=65536
num_dest=64
num_packets_max=-1
power_model=
power_state=system.cpu11.power_state
precision=3
response_limit=5000000
sim_cycles=100000
single_dest=-1
single_sender=-1
system=system
traffic_type=shuffle
test=system.ruby.l1_cntrl11.sequencer.in_ports[0]

[system.cpu11.power_state]
type=PowerState
clk_gate_bins=20
clk_gate_max=1000000000000
clk_gate_min=1000
default_state=UNDEFINED
eventq_index=0
leaders=
possible_states=

[system.cpu12]
type=GarnetSyntheticTraffic
children=power_state
block_offset=6
clk_domain=system.clk_domain
eventq_index=0
inj_rate=0.8
inj_vnet=-1
memory_size=65536
num_dest=64
num_packets_max=-1
power_model=
power_state=system.cpu12.power_state
precision=3
response_limit=5000000
sim_cycles=100000
single_dest=-1
single_sender=-1
system=system
traffic_type=shuffle
test=system.ruby.l1_cntrl12.sequencer.in_ports[0]

[system.cpu12.power_state]
type=PowerState
clk_gate_bins=20
clk_gate_max=1000000000000
clk_gate_min=1000
default_state=UNDEFINED
eventq_index=0
leaders=
possible_states=

[system.cpu13]
type=GarnetSyntheticTraffic
children=power_state
block_offset=6
clk_domain=system.clk_domain
eventq_index=0
inj_rate=0.8
inj_vnet=-1
memory_size=65536
num_dest=64
num_packets_max=-1
power_model=
power_state=system.cpu13.power_state
precision=3
response_limit=5000000
sim_cycles=100000
single_dest=-1
single_sender=-1
system=system
traffic_type=shuffle
test=system.ruby.l1_cntrl13.sequencer.in_ports[0]

[system.cpu13.power_state]
type=PowerState
clk_gate_bins=20
clk_gate_max=1000000000000
clk_gate_min=1000
default_state=UNDEFINED
eventq_index=0
leaders=
possible_states=

[system.cpu14]
type=GarnetSyntheticTraffic
children=power_state
block_offset=6
clk_domain=system.clk_domain
eventq_index=0
inj_rate=0.8
inj_vnet=-1
memory_size=65536
num_dest=64
num_packets_max=-1
power_model=
power_state=system.cpu14.power_state
precision=3
response_limit=5000000
sim_cycles=100000
single_dest=-1
single_sender=-1
system=system
traffic_type=shuffle
test=system.ruby.l1_cntrl14.sequencer.in_ports[0]

[system.cpu14.power_state]
type=PowerState
clk_gate_bins=20
clk_gate_max=1000000000000
clk_gate_min=1000
default_state=UNDEFINED
eventq_index=0
leaders=
possible_states=

[system.cpu15]
type=GarnetSyntheticTraffic
children=power_state
block_offset=6
clk_domain=system.clk_domain
eventq_index=0
inj_rate=0.8
inj_vnet=-1
memory_size=65536
num_dest=64
num_packets_max=-1
power_model=
power_state=system.cpu15.power_state
precision=3
response_limit=5000000
sim_cycles=100000
single_dest=-1
single_sender=-1
system=system
traffic_type=shuffle
test=system.ruby.l1_cntrl15.sequencer.in_ports[0]

[system.cpu15.power_state]
type=PowerState
clk_gate_bins=20
clk_gate_max=1000000000000
clk_gate_min=1000
default_state=UNDEFINED
eventq_index=0
leaders=
possible_states=

[system.cpu16]
type=GarnetSyntheticTraffic
children=power_state
block_offset=6
clk_domain=system.clk_domain
eventq_index=0
inj_rate=0.8
inj_vnet=-1
memory_size=65536
num_dest=64
num_packets_max=-1
power_model=
power_state=system.cpu16.power_state
precision=3
response_limit=5000000
sim_cycles=100000
single_dest=-1
single_sender=-1
system=system
traffic_type=shuffle
test=system.ruby.l1_cntrl16.sequencer.in_ports[0]

[system.cpu16.power_state]
type=PowerState
clk_gate_bins=20
clk_gate_max=1000000000000
clk_gate_min=1000
default_state=UNDEFINED
eventq_index=0
leaders=
possible_states=

[system.cpu17]
type=GarnetSyntheticTraffic
children=power_state
block_offset=6
clk_domain=system.clk_domain
eventq_index=0
inj_rate=0.8
inj_vnet=-1
memory_size=65536
num_dest=64
num_packets_max=-1
power_model=
power_state=system.cpu17.power_state
precision=3
response_limit=5000000
sim_cycles=100000
single_dest=-1
single_sender=-1
system=system
traffic_type=shuffle
test=system.ruby.l1_cntrl17.sequencer.in_ports[0]

[system.cpu17.power_state]
type=PowerState
clk_gate_bins=20
clk_gate_max=1000000000000
clk_gate_min=1000
default_state=UNDEFINED
eventq_index=0
leaders=
possible_states=

[system.cpu18]
type=GarnetSyntheticTraffic
children=power_state
block_offset=6
clk_domain=system.clk_domain
eventq_index=0
inj_rate=0.8
inj_vnet=-1
memory_size=65536
num_dest=64
num_packets_max=-1
power_model=
power_state=system.cpu18.power_state
precision=3
response_limit=5000000
sim_cycles=100000
single_dest=-1
single_sender=-1
system=system
traffic_type=shuffle
test=system.ruby.l1_cntrl18.sequencer.in_ports[0]

[system.cpu18.power_state]
type=PowerState
clk_gate_bins=20
clk_gate_max=1000000000000
clk_gate_min=1000
default_state=UNDEFINED
eventq_index=0
leaders=
possible_states=

[system.cpu19]
type=GarnetSyntheticTraffic
children=power_state
block_offset=6
clk_domain=system.clk_domain
eventq_index=0
inj_rate=0.8
inj_vnet=-1
memory_size=65536
num_dest=64
num_packets_max=-1
power_model=
power_state=system.cpu19.power_state
precision=3
response_limit=5000000
sim_cycles=100000
single_dest=-1
single_sender=-1
system=system
traffic_type=shuffle
test=system.ruby.l1_cntrl19.sequencer.in_ports[0]

[system.cpu19.power_state]
type=PowerState
clk_gate_bins=20
clk_gate_max=1000000000000
clk_gate_min=1000
default_state=UNDEFINED
eventq_index=0
leaders=
possible_states=

[system.cpu20]
type=GarnetSyntheticTraffic
children=power_state
block_offset=6
clk_domain=system.clk_domain
eventq_index=0
inj_rate=0.8
inj_vnet=-1
memory_size=65536
num_dest=64
num_packets_max=-1
power_model=
power_state=system.cpu20.power_state
precision=3
response_limit=5000000
sim_cycles=100000
single_dest=-1
single_sender=-1
system=system
traffic_type=shuffle
test=system.ruby.l1_cntrl20.sequencer.in_ports[0]

[system.cpu20.power_state]
type=PowerState
clk_gate_bins=20
clk_gate_max=1000000000000
clk_gate_min=1000
default_state=UNDEFINED
eventq_index=0
leaders=
possible_states=

[system.cpu21]
type=GarnetSyntheticTraffic
children=power_state
block_offset=6
clk_domain=system.clk_domain
eventq_index=0
inj_rate=0.8
inj_vnet=-1
memory_size=65536
num_dest=64
num_packets_max=-1
power_model=
power_state=system.cpu21.power_state
precision=3
response_limit=5000000
sim_cycles=100000
single_dest=-1
single_sender=-1
system=system
traffic_type=shuffle
test=system.ruby.l1_cntrl21.sequencer.in_ports[0]

[system.cpu21.power_state]
type=PowerState
clk_gate_bins=20
clk_gate_max=1000000000000
clk_gate_min=1000
default_state=UNDEFINED
eventq_index=0
leaders=
possible_states=

[system.cpu22]
type=GarnetSyntheticTraffic
children=power_state
block_offset=6
clk_domain=system.clk_domain
eventq_index=0
inj_rate=0.8
inj_vnet=-1
memory_size=65536
num_dest=64
num_packets_max=-1
power_model=
power_state=system.cpu22.power_state
precision=3
response_limit=5000000
sim_cycles=100000
single_dest=-1
single_sender=-1
system=system
traffic_type=shuffle
test=system.ruby.l1_cntrl22.sequencer.in_ports[0]

[system.cpu22.power_state]
type=PowerState
clk_gate_bins=20
clk_gate_max=1000000000000
clk_gate_min=1000
default_state=UNDEFINED
eventq_index=0
leaders=
possible_states=

[system.cpu23]
type=GarnetSyntheticTraffic
children=power_state
block_offset=6
clk_domain=system.clk_domain
eventq_index=0
inj_rate=0.8
inj_vnet=-1
memory_size=65536
num_dest=64
num_packets_max=-1
power_model=
power_state=system.cpu23.power_state
precision=3
response_limit=5000000
sim_cycles=100000
single_dest=-1
single_sender=-1
system=system
traffic_type=shuffle
test=system.ruby.l1_cntrl23.sequencer.in_ports[0]

[system.cpu23.power_state]
type=PowerState
clk_gate_bins=20
clk_gate_max=1000000000000
clk_gate_min=1000
default_state=UNDEFINED
eventq_index=0
leaders=
possible_states=

[system.cpu24]
type=GarnetSyntheticTraffic
children=power_state
block_offset=6
clk_domain=system.clk_domain
eventq_index=0
inj_rate=0.8
inj_vnet=-1
memory_size=65536
num_dest=64
num_packets_max=-1
power_model=
power_state=system.cpu24.power_state
precision=3
response_limit=5000000
sim_cycles=100000
single_dest=-1
single_sender=-1
system=system
traffic_type=shuffle
test=system.ruby.l1_cntrl24.sequencer.in_ports[0]

[system.cpu24.power_state]
type=PowerState
clk_gate_bins=20
clk_gate_max=1000000000000
clk_gate_min=1000
default_state=UNDEFINED
eventq_index=0
leaders=
possible_states=

[system.cpu25]
type=GarnetSyntheticTraffic
children=power_state
block_offset=6
clk_domain=system.clk_domain
eventq_index=0
inj_rate=0.8
inj_vnet=-1
memory_size=65536
num_dest=64
num_packets_max=-1
power_model=
power_state=system.cpu25.power_state
precision=3
response_limit=5000000
sim_cycles=100000
single_dest=-1
single_sender=-1
system=system
traffic_type=shuffle
test=system.ruby.l1_cntrl25.sequencer.in_ports[0]

[system.cpu25.power_state]
type=PowerState
clk_gate_bins=20
clk_gate_max=1000000000000
clk_gate_min=1000
default_state=UNDEFINED
eventq_index=0
leaders=
possible_states=

[system.cpu26]
type=GarnetSyntheticTraffic
children=power_state
block_offset=6
clk_domain=system.clk_domain
eventq_index=0
inj_rate=0.8
inj_vnet=-1
memory_size=65536
num_dest=64
num_packets_max=-1
power_model=
power_state=system.cpu26.power_state
precision=3
response_limit=5000000
sim_cycles=100000
single_dest=-1
single_sender=-1
system=system
traffic_type=shuffle
test=system.ruby.l1_cntrl26.sequencer.in_ports[0]

[system.cpu26.power_state]
type=PowerState
clk_gate_bins=20
clk_gate_max=1000000000000
clk_gate_min=1000
default_state=UNDEFINED
eventq_index=0
leaders=
possible_states=

[system.cpu27]
type=GarnetSyntheticTraffic
children=power_state
block_offset=6
clk_domain=system.clk_domain
eventq_index=0
inj_rate=0.8
inj_vnet=-1
memory_size=65536
num_dest=64
num_packets_max=-1
power_model=
power_state=system.cpu27.power_state
precision=3
response_limit=5000000
sim_cycles=100000
single_dest=-1
single_sender=-1
system=system
traffic_type=shuffle
test=system.ruby.l1_cntrl27.sequencer.in_ports[0]

[system.cpu27.power_state]
type=PowerState
clk_gate_bins=20
clk_gate_max=1000000000000
clk_gate_min=1000
default_state=UNDEFINED
eventq_index=0
leaders=
possible_states=

[system.cpu28]
type=GarnetSyntheticTraffic
children=power_state
block_offset=6
clk_domain=system.clk_domain
eventq_index=0
inj_rate=0.8
inj_vnet=-1
memory_size=65536
num_dest=64
num_packets_max=-1
power_model=
power_state=system.cpu28.power_state
precision=3
response_limit=5000000
sim_cycles=100000
single_dest=-1
single_sender=-1
system=system
traffic_type=shuffle
test=system.ruby.l1_cntrl28.sequencer.in_ports[0]

[system.cpu28.power_state]
type=PowerState
clk_gate_bins=20
clk_gate_max=1000000000000
clk_gate_min=1000
default_state=UNDEFINED
eventq_index=0
leaders=
possible_states=

[system.cpu29]
type=GarnetSyntheticTraffic
children=power_state
block_offset=6
clk_domain=system.clk_domain
eventq_index=0
inj_rate=0.8
inj_vnet=-1
memory_size=65536
num_dest=64
num_packets_max=-1
power_model=
power_state=system.cpu29.power_state
precision=3
response_limit=5000000
sim_cycles=100000
single_dest=-1
single_sender=-1
system=system
traffic_type=shuffle
test=system.ruby.l1_cntrl29.sequencer.in_ports[0]

[system.cpu29.power_state]
type=PowerState
clk_gate_bins=20
clk_gate_max=1000000000000
clk_gate_min=1000
default_state=UNDEFINED
eventq_index=0
leaders=
possible_states=

[system.cpu30]
type=GarnetSyntheticTraffic
children=power_state
block_offset=6
clk_domain=system.clk_domain
eventq_index=0
inj_rate=0.8
inj_vnet=-1
memory_size=65536
num_dest=64
num_packets_max=-1
power_model=
power_state=system.cpu30.power_state
precision=3
response_limit=5000000
sim_cycles=100000
single_dest=-1
single_sender=-1
system=system
traffic_type=shuffle
test=system.ruby.l1_cntrl30.sequencer.in_ports[0]

[system.cpu30.power_state]
type=PowerState
clk_gate_bins=20
clk_gate_max=1000000000000
clk_gate_min=1000
default_state=UNDEFINED
eventq_index=0
leaders=
possible_states=

[system.cpu31]
type=GarnetSyntheticTraffic
children=power_state
block_offset=6
clk_domain=system.clk_domain
eventq_index=0
inj_rate=0.8
inj_vnet=-1
memory_size=65536
num_dest=64
num_packets_max=-1
power_model=
power_state=system.cpu31.power_state
precision=3
response_limit=5000000
sim_cycles=100000
single_dest=-1
single_sender=-1
system=system
traffic_type=shuffle
test=system.ruby.l1_cntrl31.sequencer.in_ports[0]

[system.cpu31.power_state]
type=PowerState
clk_gate_bins=20
clk_gate_max=1000000000000
clk_gate_min=1000
default_state=UNDEFINED
eventq_index=0
leaders=
possible_states=

[system.cpu32]
type=GarnetSyntheticTraffic
children=power_state
block_offset=6
clk_domain=system.clk_domain
eventq_index=0
inj_rate=0.8
inj_vnet=-1
memory_size=65536
num_dest=64
num_packets_max=-1
power_model=
power_state=system.cpu32.power_state
precision=3
response_limit=5000000
sim_cycles=100000
single_dest=-1
single_sender=-1
system=system
traffic_type=shuffle
test=system.ruby.l1_cntrl32.sequencer.in_ports[0]

[system.cpu32.power_state]
type=PowerState
clk_gate_bins=20
clk_gate_max=1000000000000
clk_gate_min=1000
default_state=UNDEFINED
eventq_index=0
leaders=
possible_states=

[system.cpu33]
type=GarnetSyntheticTraffic
children=power_state
block_offset=6
clk_domain=system.clk_domain
eventq_index=0
inj_rate=0.8
inj_vnet=-1
memory_size=65536
num_dest=64
num_packets_max=-1
power_model=
power_state=system.cpu33.power_state
precision=3
response_limit=5000000
sim_cycles=100000
single_dest=-1
single_sender=-1
system=system
traffic_type=shuffle
test=system.ruby.l1_cntrl33.sequencer.in_ports[0]

[system.cpu33.power_state]
type=PowerState
clk_gate_bins=20
clk_gate_max=1000000000000
clk_gate_min=1000
default_state=UNDEFINED
eventq_index=0
leaders=
possible_states=

[system.cpu34]
type=GarnetSyntheticTraffic
children=power_state
block_offset=6
clk_domain=system.clk_domain
eventq_index=0
inj_rate=0.8
inj_vnet=-1
memory_size=65536
num_dest=64
num_packets_max=-1
power_model=
power_state=system.cpu34.power_state
precision=3
response_limit=5000000
sim_cycles=100000
single_dest=-1
single_sender=-1
system=system
traffic_type=shuffle
test=system.ruby.l1_cntrl34.sequencer.in_ports[0]

[system.cpu34.power_state]
type=PowerState
clk_gate_bins=20
clk_gate_max=1000000000000
clk_gate_min=1000
default_state=UNDEFINED
eventq_index=0
leaders=
possible_states=

[system.cpu35]
type=GarnetSyntheticTraffic
children=power_state
block_offset=6
clk_domain=system.clk_domain
eventq_index=0
inj_rate=0.8
inj_vnet=-1
memory_size=65536
num_dest=64
num_packets_max=-1
power_model=
power_state=system.cpu35.power_state
precision=3
response_limit=5000000
sim_cycles=100000
single_dest=-1
single_sender=-1
system=system
traffic_type=shuffle
test=system.ruby.l1_cntrl35.sequencer.in_ports[0]

[system.cpu35.power_state]
type=PowerState
clk_gate_bins=20
clk_gate_max=1000000000000
clk_gate_min=1000
default_state=UNDEFINED
eventq_index=0
leaders=
possible_states=

[system.cpu36]
type=GarnetSyntheticTraffic
children=power_state
block_offset=6
clk_domain=system.clk_domain
eventq_index=0
inj_rate=0.8
inj_vnet=-1
memory_size=65536
num_dest=64
num_packets_max=-1
power_model=
power_state=system.cpu36.power_state
precision=3
response_limit=5000000
sim_cycles=100000
single_dest=-1
single_sender=-1
system=system
traffic_type=shuffle
test=system.ruby.l1_cntrl36.sequencer.in_ports[0]

[system.cpu36.power_state]
type=PowerState
clk_gate_bins=20
clk_gate_max=1000000000000
clk_gate_min=1000
default_state=UNDEFINED
eventq_index=0
leaders=
possible_states=

[system.cpu37]
type=GarnetSyntheticTraffic
children=power_state
block_offset=6
clk_domain=system.clk_domain
eventq_index=0
inj_rate=0.8
inj_vnet=-1
memory_size=65536
num_dest=64
num_packets_max=-1
power_model=
power_state=system.cpu37.power_state
precision=3
response_limit=5000000
sim_cycles=100000
single_dest=-1
single_sender=-1
system=system
traffic_type=shuffle
test=system.ruby.l1_cntrl37.sequencer.in_ports[0]

[system.cpu37.power_state]
type=PowerState
clk_gate_bins=20
clk_gate_max=1000000000000
clk_gate_min=1000
default_state=UNDEFINED
eventq_index=0
leaders=
possible_states=

[system.cpu38]
type=GarnetSyntheticTraffic
children=power_state
block_offset=6
clk_domain=system.clk_domain
eventq_index=0
inj_rate=0.8
inj_vnet=-1
memory_size=65536
num_dest=64
num_packets_max=-1
power_model=
power_state=system.cpu38.power_state
precision=3
response_limit=5000000
sim_cycles=100000
single_dest=-1
single_sender=-1
system=system
traffic_type=shuffle
test=system.ruby.l1_cntrl38.sequencer.in_ports[0]

[system.cpu38.power_state]
type=PowerState
clk_gate_bins=20
clk_gate_max=1000000000000
clk_gate_min=1000
default_state=UNDEFINED
eventq_index=0
leaders=
possible_states=

[system.cpu39]
type=GarnetSyntheticTraffic
children=power_state
block_offset=6
clk_domain=system.clk_domain
eventq_index=0
inj_rate=0.8
inj_vnet=-1
memory_size=65536
num_dest=64
num_packets_max=-1
power_model=
power_state=system.cpu39.power_state
precision=3
response_limit=5000000
sim_cycles=100000
single_dest=-1
single_sender=-1
system=system
traffic_type=shuffle
test=system.ruby.l1_cntrl39.sequencer.in_ports[0]

[system.cpu39.power_state]
type=PowerState
clk_gate_bins=20
clk_gate_max=1000000000000
clk_gate_min=1000
default_state=UNDEFINED
eventq_index=0
leaders=
possible_states=

[system.cpu40]
type=GarnetSyntheticTraffic
children=power_state
block_offset=6
clk_domain=system.clk_domain
eventq_index=0
inj_rate=0.8
inj_vnet=-1
memory_size=65536
num_dest=64
num_packets_max=-1
power_model=
power_state=system.cpu40.power_state
precision=3
response_limit=5000000
sim_cycles=100000
single_dest=-1
single_sender=-1
system=system
traffic_type=shuffle
test=system.ruby.l1_cntrl40.sequencer.in_ports[0]

[system.cpu40.power_state]
type=PowerState
clk_gate_bins=20
clk_gate_max=1000000000000
clk_gate_min=1000
default_state=UNDEFINED
eventq_index=0
leaders=
possible_states=

[system.cpu41]
type=GarnetSyntheticTraffic
children=power_state
block_offset=6
clk_domain=system.clk_domain
eventq_index=0
inj_rate=0.8
inj_vnet=-1
memory_size=65536
num_dest=64
num_packets_max=-1
power_model=
power_state=system.cpu41.power_state
precision=3
response_limit=5000000
sim_cycles=100000
single_dest=-1
single_sender=-1
system=system
traffic_type=shuffle
test=system.ruby.l1_cntrl41.sequencer.in_ports[0]

[system.cpu41.power_state]
type=PowerState
clk_gate_bins=20
clk_gate_max=1000000000000
clk_gate_min=1000
default_state=UNDEFINED
eventq_index=0
leaders=
possible_states=

[system.cpu42]
type=GarnetSyntheticTraffic
children=power_state
block_offset=6
clk_domain=system.clk_domain
eventq_index=0
inj_rate=0.8
inj_vnet=-1
memory_size=65536
num_dest=64
num_packets_max=-1
power_model=
power_state=system.cpu42.power_state
precision=3
response_limit=5000000
sim_cycles=100000
single_dest=-1
single_sender=-1
system=system
traffic_type=shuffle
test=system.ruby.l1_cntrl42.sequencer.in_ports[0]

[system.cpu42.power_state]
type=PowerState
clk_gate_bins=20
clk_gate_max=1000000000000
clk_gate_min=1000
default_state=UNDEFINED
eventq_index=0
leaders=
possible_states=

[system.cpu43]
type=GarnetSyntheticTraffic
children=power_state
block_offset=6
clk_domain=system.clk_domain
eventq_index=0
inj_rate=0.8
inj_vnet=-1
memory_size=65536
num_dest=64
num_packets_max=-1
power_model=
power_state=system.cpu43.power_state
precision=3
response_limit=5000000
sim_cycles=100000
single_dest=-1
single_sender=-1
system=system
traffic_type=shuffle
test=system.ruby.l1_cntrl43.sequencer.in_ports[0]

[system.cpu43.power_state]
type=PowerState
clk_gate_bins=20
clk_gate_max=1000000000000
clk_gate_min=1000
default_state=UNDEFINED
eventq_index=0
leaders=
possible_states=

[system.cpu44]
type=GarnetSyntheticTraffic
children=power_state
block_offset=6
clk_domain=system.clk_domain
eventq_index=0
inj_rate=0.8
inj_vnet=-1
memory_size=65536
num_dest=64
num_packets_max=-1
power_model=
power_state=system.cpu44.power_state
precision=3
response_limit=5000000
sim_cycles=100000
single_dest=-1
single_sender=-1
system=system