[root]
type=Root
children=system
eventq_index=0
full_system=false
sim_quantum=0
time_sync_enable=false
time_sync_period=100000000
time_sync_spin_threshold=100000

[system]
type=System
children=clk_domain cpu dvfs_handler mem_ctrls00 mem_ctrls01 mem_ctrls02 mem_ctrls03 mem_ctrls04 mem_ctrls05 mem_ctrls06 mem_ctrls07 mem_ctrls08 mem_ctrls09 mem_ctrls10 mem_ctrls11 mem_ctrls12 mem_ctrls13 mem_ctrls14 mem_ctrls15 redirect_paths0 redirect_paths1 redirect_paths2 ruby sys_port_proxy voltage_domain
byte_order=little
cache_line_size=64
eventq_index=0
exit_on_work_items=false
init_param=0
kvm_vm=Null
m5ops_base=4294901760
mem_mode=timing
mem_ranges=0:536870912
memories=system.mem_ctrls00.dram system.mem_ctrls01.dram system.mem_ctrls02.dram system.mem_ctrls03.dram system.mem_ctrls04.dram system.mem_ctrls05.dram system.mem_ctrls06.dram system.mem_ctrls07.dram system.mem_ctrls08.dram system.mem_ctrls09.dram system.mem_ctrls10.dram system.mem_ctrls11.dram system.mem_ctrls12.dram system.mem_ctrls13.dram system.mem_ctrls14.dram system.mem_ctrls15.dram
mmap_using_noreserve=false
multi_thread=false
num_work_ids=16
readfile=
redirect_paths=system.redirect_paths0 system.redirect_paths1 system.redirect_paths2
shared_backstore=
symbolfile=
thermal_components=
thermal_model=Null
work_begin_ckpt_count=0
work_begin_cpu_id_exit=-1
work_begin_exit_count=0
work_cpus_ckpt_count=0
work_end_ckpt_count=0
work_end_exit_count=0
work_item_id=-1
workload=Null
system_port=system.sys_port_proxy.in_ports[0]

[system.clk_domain]
type=SrcClockDomain
clock=1
domain_id=-1
eventq_index=0
init_perf_level=0
voltage_domain=system.voltage_domain

[system.cpu]
type=RubyTester
children=power_state
check_flush=false
checks_to_complete=100
clk_domain=system.clk_domain
deadlock_threshold=50000
eventq_index=0
num_cpus=16
power_model=
power_state=system.cpu.power_state
system=system
wakeup_frequency=10
cpuInstDataPort=system.ruby.l1_cntrl0.sequencer.in_ports[0] system.ruby.l1_cntrl1.sequencer.in_ports[0] system.ruby.l1_cntrl2.sequencer.in_ports[0] system.ruby.l1_cntrl3.sequencer.in_ports[0] system.ruby.l1_cntrl4.sequencer.in_ports[0] system.ruby.l1_cntrl5.sequencer.in_ports[0] system.ruby.l1_cntrl6.sequencer.in_ports[0] system.ruby.l1_cntrl7.sequencer.in_ports[0] system.ruby.l1_cntrl8.sequencer.in_ports[0] system.ruby.l1_cntrl9.sequencer.in_ports[0] system.ruby.l1_cntrl10.sequencer.in_ports[0] system.ruby.l1_cntrl11.sequencer.in_ports[0] system.ruby.l1_cntrl12.sequencer.in_ports[0] system.ruby.l1_cntrl13.sequencer.in_ports[0] system.ruby.l1_cntrl14.sequencer.in_ports[0] system.ruby.l1_cntrl15.sequencer.in_ports[0]

[system.cpu.power_state]
type=PowerState
clk_gate_bins=20
clk_gate_max=1000000000
clk_gate_min=1
default_state=UNDEFINED
eventq_index=0
leaders=
possible_states=

[system.dvfs_handler]
type=DVFSHandler
domains=
enable=false
eventq_index=0
sys_clk_domain=system.clk_domain
transition_latency=100000

[system.mem_ctrls00]
type=MemCtrl
children=dram power_state
clk_domain=system.clk_domain
command_window=10
dram=system.mem_ctrls00.dram
eventq_index=0
mem_sched_policy=frfcfs
min_writes_per_switch=16
nvm=Null
power_model=
power_state=system.mem_ctrls00.power_state
qos_policy=Null
qos_priorities=1
qos_priority_escalation=false
qos_q_policy=fifo
qos_requestors=               
qos_syncro_scheduler=false
qos_turnaround_policy=Null
static_backend_latency=10
static_frontend_latency=10
system=system
write_high_thresh_perc=85
write_low_thresh_perc=50
port=system.ruby.dir_cntrl0.memory_out_port

[system.mem_ctrls00.dram]
type=DRAMInterface
children=power_state
IDD0=0.055
IDD02=0.0
IDD2N=0.032
IDD2N2=0.0
IDD2P0=0.0
IDD2P02=0.0
IDD2P1=0.032
IDD2P12=0.0
IDD3N=0.038
IDD3N2=0.0
IDD3P0=0.0
IDD3P02=0.0
IDD3P1=0.038
IDD3P12=0.0
IDD4R=0.157
IDD4R2=0.0
IDD4W=0.125
IDD4W2=0.0
IDD5=0.23500000000000001
IDD52=0.0
IDD6=0.02
IDD62=0.0
VDD=1.5
VDD2=0.0
activation_limit=4
addr_mapping=RoRaBaCoCh
bank_groups_per_rank=0
banks_per_rank=8
beats_per_clock=2
burst_length=8
clk_domain=system.clk_domain
conf_table_reported=true
data_clock_sync=false
device_bus_width=8
device_rowbuffer_size=1024
device_size=536870912
devices_per_rank=8
dll=true
enable_dram_powerdown=false
eventq_index=0
image_file=
in_addr_map=true
kvm_map=true
max_accesses_per_row=16
null=false
page_policy=open_adaptive
power_model=
power_state=system.mem_ctrls00.dram.power_state
range=0:536870912:0:1048640:2097280:4194560:8389120
ranks_per_channel=2
read_buffer_size=32
tAAD=1
tBURST=5
tBURST_MAX=5
tBURST_MIN=5
tCCD_L=0
tCCD_L_WR=0
tCK=1
tCL=14
tCS=3
tPPD=0
tRAS=35
tRCD=14
tREFI=7800
tRFC=260
tRP=14
tRRD=6
tRRD_L=0
tRTP=8
tRTW=3
tWR=15
tWTR=8
tWTR_L=8
tXAW=30
tXP=6
tXPDLL=0
tXS=270
tXSDLL=0
two_cycle_activate=false
write_buffer_size=64

[system.mem_ctrls00.dram.power_state]
type=PowerState
clk_gate_bins=20
clk_gate_max=1000000000
clk_gate_min=1
default_state=UNDEFINED
eventq_index=0
leaders=
possible_states=

[system.mem_ctrls00.power_state]
type=PowerState
clk_gate_bins=20
clk_gate_max=1000000000
clk_gate_min=1
default_state=UNDEFINED
eventq_index=0
leaders=
possible_states=

[system.mem_ctrls01]
type=MemCtrl
children=dram power_state
clk_domain=system.clk_domain
command_window=10
dram=system.mem_ctrls01.dram
eventq_index=0
mem_sched_policy=frfcfs
min_writes_per_switch=16
nvm=Null
power_model=
power_state=system.mem_ctrls01.power_state
qos_policy=Null
qos_priorities=1
qos_priority_escalation=false
qos_q_policy=fifo
qos_requestors=               
qos_syncro_scheduler=false
qos_turnaround_policy=Null
static_backend_latency=10
static_frontend_latency=10
system=system
write_high_thresh_perc=85
write_low_thresh_perc=50
port=system.ruby.dir_cntrl1.memory_out_port

[system.mem_ctrls01.dram]
type=DRAMInterface
children=power_state
IDD0=0.055
IDD02=0.0
IDD2N=0.032
IDD2N2=0.0
IDD2P0=0.0
IDD2P02=0.0
IDD2P1=0.032
IDD2P12=0.0
IDD3N=0.038
IDD3N2=0.0
IDD3P0=0.0
IDD3P02=0.0
IDD3P1=0.038
IDD3P12=0.0
IDD4R=0.157
IDD4R2=0.0
IDD4W=0.125
IDD4W2=0.0
IDD5=0.23500000000000001
IDD52=0.0
IDD6=0.02
IDD62=0.0
VDD=1.5
VDD2=0.0
activation_limit=4
addr_mapping=RoRaBaCoCh
bank_groups_per_rank=0
banks_per_rank=8
beats_per_clock=2
burst_length=8
clk_domain=system.clk_domain
conf_table_reported=true
data_clock_sync=false
device_bus_width=8
device_rowbuffer_size=1024
device_size=536870912
devices_per_rank=8
dll=true
enable_dram_powerdown=false
eventq_index=0
image_file=
in_addr_map=true
kvm_map=true
max_accesses_per_row=16
null=false
page_policy=open_adaptive
power_model=
power_state=system.mem_ctrls01.dram.power_state
range=0:536870912:1:1048640:2097280:4194560:8389120
ranks_per_channel=2
read_buffer_size=32
tAAD=1
tBURST=5
tBURST_MAX=5
tBURST_MIN=5
tCCD_L=0
tCCD_L_WR=0
tCK=1
tCL=14
tCS=3
tPPD=0
tRAS=35
tRCD=14
tREFI=7800
tRFC=260
tRP=14
tRRD=6
tRRD_L=0
tRTP=8
tRTW=3
tWR=15
tWTR=8
tWTR_L=8
tXAW=30
tXP=6
tXPDLL=0
tXS=270
tXSDLL=0
two_cycle_activate=false
write_buffer_size=64

[system.mem_ctrls01.dram.power_state]
type=PowerState
clk_gate_bins=20
clk_gate_max=1000000000
clk_gate_min=1
default_state=UNDEFINED
eventq_index=0
leaders=
possible_states=

[system.mem_ctrls01.power_state]
type=PowerState
clk_gate_bins=20
clk_gate_max=1000000000
clk_gate_min=1
default_state=UNDEFINED
eventq_index=0
leaders=
possible_states=

[system.mem_ctrls02]
type=MemCtrl
children=dram power_state
clk_domain=system.clk_domain
command_window=10
dram=system.mem_ctrls02.dram
eventq_index=0
mem_sched_policy=frfcfs
min_writes_per_switch=16
nvm=Null
power_model=
power_state=system.mem_ctrls02.power_state
qos_policy=Null
qos_priorities=1
qos_priority_escalation=false
qos_q_policy=fifo
qos_requestors=               
qos_syncro_scheduler=false
qos_turnaround_policy=Null
static_backend_latency=10
static_frontend_latency=10
system=system
write_high_thresh_perc=85
write_low_thresh_perc=50
port=system.ruby.dir_cntrl2.memory_out_port

[system.mem_ctrls02.dram]
type=DRAMInterface
children=power_state
IDD0=0.055
IDD02=0.0
IDD2N=0.032
IDD2N2=0.0
IDD2P0=0.0
IDD2P02=0.0
IDD2P1=0.032
IDD2P12=0.0
IDD3N=0.038
IDD3N2=0.0
IDD3P0=0.0
IDD3P02=0.0
IDD3P1=0.038
IDD3P12=0.0
IDD4R=0.157
IDD4R2=0.0
IDD4W=0.125
IDD4W2=0.0
IDD5=0.23500000000000001
IDD52=0.0
IDD6=0.02
IDD62=0.0
VDD=1.5
VDD2=0.0
activation_limit=4
addr_mapping=RoRaBaCoCh
bank_groups_per_rank=0
banks_per_rank=8
beats_per_clock=2
burst_length=8
clk_domain=system.clk_domain
conf_table_reported=true
data_clock_sync=false
device_bus_width=8
device_rowbuffer_size=1024
device_size=536870912
devices_per_rank=8
dll=true
enable_dram_powerdown=false
eventq_index=0
image_file=
in_addr_map=true
kvm_map=true
max_accesses_per_row=16
null=false
page_policy=open_adaptive
power_model=
power_state=system.mem_ctrls02.dram.power_state
range=0:536870912:2:1048640:2097280:4194560:8389120
ranks_per_channel=2
read_buffer_size=32
tAAD=1
tBURST=5
tBURST_MAX=5
tBURST_MIN=5
tCCD_L=0
tCCD_L_WR=0
tCK=1
tCL=14
tCS=3
tPPD=0
tRAS=35
tRCD=14
tREFI=7800
tRFC=260
tRP=14
tRRD=6
tRRD_L=0
tRTP=8
tRTW=3
tWR=15
tWTR=8
tWTR_L=8
tXAW=30
tXP=6
tXPDLL=0
tXS=270
tXSDLL=0
two_cycle_activate=false
write_buffer_size=64

[system.mem_ctrls02.dram.power_state]
type=PowerState
clk_gate_bins=20
clk_gate_max=1000000000
clk_gate_min=1
default_state=UNDEFINED
eventq_index=0
leaders=
possible_states=

[system.mem_ctrls02.power_state]
type=PowerState
clk_gate_bins=20
clk_gate_max=1000000000
clk_gate_min=1
default_state=UNDEFINED
eventq_index=0
leaders=
possible_states=

[system.mem_ctrls03]
type=MemCtrl
children=dram power_state
clk_domain=system.clk_domain
command_window=10
dram=system.mem_ctrls03.dram
eventq_index=0
mem_sched_policy=frfcfs
min_writes_per_switch=16
nvm=Null
power_model=
power_state=system.mem_ctrls03.power_state
qos_policy=Null
qos_priorities=1
qos_priority_escalation=false
qos_q_policy=fifo
qos_requestors=               
qos_syncro_scheduler=false
qos_turnaround_policy=Null
static_backend_latency=10
static_frontend_latency=10
system=system
write_high_thresh_perc=85
write_low_thresh_perc=50
port=system.ruby.dir_cntrl3.memory_out_port

[system.mem_ctrls03.dram]
type=DRAMInterface
children=power_state
IDD0=0.055
IDD02=0.0
IDD2N=0.032
IDD2N2=0.0
IDD2P0=0.0
IDD2P02=0.0
IDD2P1=0.032
IDD2P12=0.0
IDD3N=0.038
IDD3N2=0.0
IDD3P0=0.0
IDD3P02=0.0
IDD3P1=0.038
IDD3P12=0.0
IDD4R=0.157
IDD4R2=0.0
IDD4W=0.125
IDD4W2=0.0
IDD5=0.23500000000000001
IDD52=0.0
IDD6=0.02
IDD62=0.0
VDD=1.5
VDD2=0.0
activation_limit=4
addr_mapping=RoRaBaCoCh
bank_groups_per_rank=0
banks_per_rank=8
beats_per_clock=2
burst_length=8
clk_domain=system.clk_domain
conf_table_reported=true
data_clock_sync=false
device_bus_width=8
device_rowbuffer_size=1024
device_size=536870912
devices_per_rank=8
dll=true
enable_dram_powerdown=false
eventq_index=0
image_file=
in_addr_map=true
kvm_map=true
max_accesses_per_row=16
null=false
page_policy=open_adaptive
power_model=
power_state=system.mem_ctrls03.dram.power_state
range=0:536870912:3:1048640:2097280:4194560:8389120
ranks_per_channel=2
read_buffer_size=32
tAAD=1
tBURST=5
tBURST_MAX=5
tBURST_MIN=5
tCCD_L=0
tCCD_L_WR=0
tCK=1
tCL=14
tCS=3
tPPD=0
tRAS=35
tRCD=14
tREFI=7800
tRFC=260
tRP=14
tRRD=6
tRRD_L=0
tRTP=8
tRTW=3
tWR=15
tWTR=8
tWTR_L=8
tXAW=30
tXP=6
tXPDLL=0
tXS=270
tXSDLL=0
two_cycle_activate=false
write_buffer_size=64

[system.mem_ctrls03.dram.power_state]
type=PowerState
clk_gate_bins=20
clk_gate_max=1000000000
clk_gate_min=1
default_state=UNDEFINED
eventq_index=0
leaders=
possible_states=

[system.mem_ctrls03.power_state]
type=PowerState
clk_gate_bins=20
clk_gate_max=1000000000
clk_gate_min=1
default_state=UNDEFINED
eventq_index=0
leaders=
possible_states=

[system.mem_ctrls04]
type=MemCtrl
children=dram power_state
clk_domain=system.clk_domain
command_window=10
dram=system.mem_ctrls04.dram
eventq_index=0
mem_sched_policy=frfcfs
min_writes_per_switch=16
nvm=Null
power_model=
power_state=system.mem_ctrls04.power_state
qos_policy=Null
qos_priorities=1
qos_priority_escalation=false
qos_q_policy=fifo
qos_requestors=               
qos_syncro_scheduler=false
qos_turnaround_policy=Null
static_backend_latency=10
static_frontend_latency=10
system=system
write_high_thresh_perc=85
write_low_thresh_perc=50
port=system.ruby.dir_cntrl4.memory_out_port

[system.mem_ctrls04.dram]
type=DRAMInterface
children=power_state
IDD0=0.055
IDD02=0.0
IDD2N=0.032
IDD2N2=0.0
IDD2P0=0.0
IDD2P02=0.0
IDD2P1=0.032
IDD2P12=0.0
IDD3N=0.038
IDD3N2=0.0
IDD3P0=0.0
IDD3P02=0.0
IDD3P1=0.038
IDD3P12=0.0
IDD4R=0.157
IDD4R2=0.0
IDD4W=0.125
IDD4W2=0.0
IDD5=0.23500000000000001
IDD52=0.0
IDD6=0.02
IDD62=0.0
VDD=1.5
VDD2=0.0
activation_limit=4
addr_mapping=RoRaBaCoCh
bank_groups_per_rank=0
banks_per_rank=8
beats_per_clock=2
burst_length=8
clk_domain=system.clk_domain
conf_table_reported=true
data_clock_sync=false
device_bus_width=8
device_rowbuffer_size=1024
device_size=536870912
devices_per_rank=8
dll=true
enable_dram_powerdown=false
eventq_index=0
image_file=
in_addr_map=true
kvm_map=true
max_accesses_per_row=16
null=false
page_policy=open_adaptive
power_model=
power_state=system.mem_ctrls04.dram.power_state
range=0:536870912:4:1048640:2097280:4194560:8389120
ranks_per_channel=2
read_buffer_size=32
tAAD=1
tBURST=5
tBURST_MAX=5
tBURST_MIN=5
tCCD_L=0
tCCD_L_WR=0
tCK=1
tCL=14
tCS=3
tPPD=0
tRAS=35
tRCD=14
tREFI=7800
tRFC=260
tRP=14
tRRD=6
tRRD_L=0
tRTP=8
tRTW=3
tWR=15
tWTR=8
tWTR_L=8
tXAW=30
tXP=6
tXPDLL=0
tXS=270
tXSDLL=0
two_cycle_activate=false
write_buffer_size=64

[system.mem_ctrls04.dram.power_state]
type=PowerState
clk_gate_bins=20
clk_gate_max=1000000000
clk_gate_min=1
default_state=UNDEFINED
eventq_index=0
leaders=
possible_states=

[system.mem_ctrls04.power_state]
type=PowerState
clk_gate_bins=20
clk_gate_max=1000000000
clk_gate_min=1
default_state=UNDEFINED
eventq_index=0
leaders=
possible_states=

[system.mem_ctrls05]
type=MemCtrl
children=dram power_state
clk_domain=system.clk_domain
command_window=10
dram=system.mem_ctrls05.dram
eventq_index=0
mem_sched_policy=frfcfs
min_writes_per_switch=16
nvm=Null
power_model=
power_state=system.mem_ctrls05.power_state
qos_policy=Null
qos_priorities=1
qos_priority_escalation=false
qos_q_policy=fifo
qos_requestors=               
qos_syncro_scheduler=false
qos_turnaround_policy=Null
static_backend_latency=10
static_frontend_latency=10
system=system
write_high_thresh_perc=85
write_low_thresh_perc=50
port=system.ruby.dir_cntrl5.memory_out_port

[system.mem_ctrls05.dram]
type=DRAMInterface
children=power_state
IDD0=0.055
IDD02=0.0
IDD2N=0.032
IDD2N2=0.0
IDD2P0=0.0
IDD2P02=0.0
IDD2P1=0.032
IDD2P12=0.0
IDD3N=0.038
IDD3N2=0.0
IDD3P0=0.0
IDD3P02=0.0
IDD3P1=0.038
IDD3P12=0.0
IDD4R=0.157
IDD4R2=0.0
IDD4W=0.125
IDD4W2=0.0
IDD5=0.23500000000000001
IDD52=0.0
IDD6=0.02
IDD62=0.0
VDD=1.5
VDD2=0.0
activation_limit=4
addr_mapping=RoRaBaCoCh
bank_groups_per_rank=0
banks_per_rank=8
beats_per_clock=2
burst_length=8
clk_domain=system.clk_domain
conf_table_reported=true
data_clock_sync=false
device_bus_width=8
device_rowbuffer_size=1024
device_size=536870912
devices_per_rank=8
dll=true
enable_dram_powerdown=false
eventq_index=0
image_file=
in_addr_map=true
kvm_map=true
max_accesses_per_row=16
null=false
page_policy=open_adaptive
power_model=
power_state=system.mem_ctrls05.dram.power_state
range=0:536870912:5:1048640:2097280:4194560:8389120
ranks_per_channel=2
read_buffer_size=32
tAAD=1
tBURST=5
tBURST_MAX=5
tBURST_MIN=5
tCCD_L=0
tCCD_L_WR=0
tCK=1
tCL=14
tCS=3
tPPD=0
tRAS=35
tRCD=14
tREFI=7800
tRFC=260
tRP=14
tRRD=6
tRRD_L=0
tRTP=8
tRTW=3
tWR=15
tWTR=8
tWTR_L=8
tXAW=30
tXP=6
tXPDLL=0
tXS=270
tXSDLL=0
two_cycle_activate=false
write_buffer_size=64

[system.mem_ctrls05.dram.power_state]
type=PowerState
clk_gate_bins=20
clk_gate_max=1000000000
clk_gate_min=1
default_state=UNDEFINED
eventq_index=0
leaders=
possible_states=

[system.mem_ctrls05.power_state]
type=PowerState
clk_gate_bins=20
clk_gate_max=1000000000
clk_gate_min=1
default_state=UNDEFINED
eventq_index=0
leaders=
possible_states=

[system.mem_ctrls06]
type=MemCtrl
children=dram power_state
clk_domain=system.clk_domain
command_window=10
dram=system.mem_ctrls06.dram
eventq_index=0
mem_sched_policy=frfcfs
min_writes_per_switch=16
nvm=Null
power_model=
power_state=system.mem_ctrls06.power_state
qos_policy=Null
qos_priorities=1
qos_priority_escalation=false
qos_q_policy=fifo
qos_requestors=               
qos_syncro_scheduler=false
qos_turnaround_policy=Null
static_backend_latency=10
static_frontend_latency=10
system=system
write_high_thresh_perc=85
write_low_thresh_perc=50
port=system.ruby.dir_cntrl6.memory_out_port

[system.mem_ctrls06.dram]
type=DRAMInterface
children=power_state
IDD0=0.055
IDD02=0.0
IDD2N=0.032
IDD2N2=0.0
IDD2P0=0.0
IDD2P02=0.0
IDD2P1=0.032
IDD2P12=0.0
IDD3N=0.038
IDD3N2=0.0
IDD3P0=0.0
IDD3P02=0.0
IDD3P1=0.038
IDD3P12=0.0
IDD4R=0.157
IDD4R2=0.0
IDD4W=0.125
IDD4W2=0.0
IDD5=0.23500000000000001
IDD52=0.0
IDD6=0.02
IDD62=0.0
VDD=1.5
VDD2=0.0
activation_limit=4
addr_mapping=RoRaBaCoCh
bank_groups_per_rank=0
banks_per_rank=8
beats_per_clock=2
burst_length=8
clk_domain=system.clk_domain
conf_table_reported=true
data_clock_sync=false
device_bus_width=8
device_rowbuffer_size=1024
device_size=536870912
devices_per_rank=8
dll=true
enable_dram_powerdown=false
eventq_index=0
image_file=
in_addr_map=true
kvm_map=true
max_accesses_per_row=16
null=false
page_policy=open_adaptive
power_model=
power_state=system.mem_ctrls06.dram.power_state
range=0:536870912:6:1048640:2097280:4194560:8389120
ranks_per_channel=2
read_buffer_size=32
tAAD=1
tBURST=5
tBURST_MAX=5
tBURST_MIN=5
tCCD_L=0
tCCD_L_WR=0
tCK=1
tCL=14
tCS=3
tPPD=0
tRAS=35
tRCD=14
tREFI=7800
tRFC=260
tRP=14
tRRD=6
tRRD_L=0
tRTP=8
tRTW=3
tWR=15
tWTR=8
tWTR_L=8
tXAW=30
tXP=6
tXPDLL=0
tXS=270
tXSDLL=0
two_cycle_activate=false
write_buffer_size=64

[system.mem_ctrls06.dram.power_state]
type=PowerState
clk_gate_bins=20
clk_gate_max=1000000000
clk_gate_min=1
default_state=UNDEFINED
eventq_index=0
leaders=
possible_states=

[system.mem_ctrls06.power_state]
type=PowerState
clk_gate_bins=20
clk_gate_max=1000000000
clk_gate_min=1
default_state=UNDEFINED
eventq_index=0
leaders=
possible_states=

[system.mem_ctrls07]
type=MemCtrl
children=dram power_state
clk_domain=system.clk_domain
command_window=10
dram=system.mem_ctrls07.dram
eventq_index=0
mem_sched_policy=frfcfs
min_writes_per_switch=16
nvm=Null
power_model=
power_state=system.mem_ctrls07.power_state
qos_policy=Null
qos_priorities=1
qos_priority_escalation=false
qos_q_policy=fifo
qos_requestors=               
qos_syncro_scheduler=false
qos_turnaround_policy=Null
static_backend_latency=10
static_frontend_latency=10
system=system
write_high_thresh_perc=85
write_low_thresh_perc=50
port=system.ruby.dir_cntrl7.memory_out_port

[system.mem_ctrls07.dram]
type=DRAMInterface
children=power_state
IDD0=0.055
IDD02=0.0
IDD2N=0.032
IDD2N2=0.0
IDD2P0=0.0
IDD2P02=0.0
IDD2P1=0.032
IDD2P12=0.0
IDD3N=0.038
IDD3N2=0.0
IDD3P0=0.0
IDD3P02=0.0
IDD3P1=0.038
IDD3P12=0.0
IDD4R=0.157
IDD4R2=0.0
IDD4W=0.125
IDD4W2=0.0
IDD5=0.23500000000000001
IDD52=0.0
IDD6=0.02
IDD62=0.0
VDD=1.5
VDD2=0.0
activation_limit=4
addr_mapping=RoRaBaCoCh
bank_groups_per_rank=0
banks_per_rank=8
beats_per_clock=2
burst_length=8
clk_domain=system.clk_domain
conf_table_reported=true
data_clock_sync=false
device_bus_width=8
device_rowbuffer_size=1024
device_size=536870912
devices_per_rank=8
dll=true
enable_dram_powerdown=false
eventq_index=0
image_file=
in_addr_map=true
kvm_map=true
max_accesses_per_row=16
null=false
page_policy=open_adaptive
power_model=
power_state=system.mem_ctrls07.dram.power_state
range=0:536870912:7:1048640:2097280:4194560:8389120
ranks_per_channel=2
read_buffer_size=32
tAAD=1
tBURST=5
tBURST_MAX=5
tBURST_MIN=5
tCCD_L=0
tCCD_L_WR=0
tCK=1
tCL=14
tCS=3
tPPD=0
tRAS=35
tRCD=14
tREFI=7800
tRFC=260
tRP=14
tRRD=6
tRRD_L=0
tRTP=8
tRTW=3
tWR=15
tWTR=8
tWTR_L=8
tXAW=30
tXP=6
tXPDLL=0
tXS=270
tXSDLL=0
two_cycle_activate=false
write_buffer_size=64

[system.mem_ctrls07.dram.power_state]
type=PowerState
clk_gate_bins=20
clk_gate_max=1000000000
clk_gate_min=1
default_state=UNDEFINED
eventq_index=0
leaders=
possible_states=

[system.mem_ctrls07.power_state]
type=PowerState
clk_gate_bins=20
clk_gate_max=1000000000
clk_gate_min=1
default_state=UNDEFINED
eventq_index=0
leaders=
possible_states=

[system.mem_ctrls08]
type=MemCtrl
children=dram power_state
clk_domain=system.clk_domain
command_window=10
dram=system.mem_ctrls08.dram
eventq_index=0
mem_sched_policy=frfcfs
min_writes_per_switch=16
nvm=Null
power_model=
power_state=system.mem_ctrls08.power_state
qos_policy=Null
qos_priorities=1
qos_priority_escalation=false
qos_q_policy=fifo
qos_requestors=               
qos_syncro_scheduler=false
qos_turnaround_policy=Null
static_backend_latency=10
static_frontend_latency=10
system=system
write_high_thresh_perc=85
write_low_thresh_perc=50
port=system.ruby.dir_cntrl8.memory_out_port

[system.mem_ctrls08.dram]
type=DRAMInterface
children=power_state
IDD0=0.055
IDD02=0.0
IDD2N=0.032
IDD2N2=0.0
IDD2P0=0.0
IDD2P02=0.0
IDD2P1=0.032
IDD2P12=0.0
IDD3N=0.038
IDD3N2=0.0
IDD3P0=0.0
IDD3P02=0.0
IDD3P1=0.038
IDD3P12=0.0
IDD4R=0.157
IDD4R2=0.0
IDD4W=0.125
IDD4W2=0.0
IDD5=0.23500000000000001
IDD52=0.0
IDD6=0.02
IDD62=0.0
VDD=1.5
VDD2=0.0
activation_limit=4
addr_mapping=RoRaBaCoCh
bank_groups_per_rank=0
banks_per_rank=8
beats_per_clock=2
burst_length=8
clk_domain=system.clk_domain
conf_table_reported=true
data_clock_sync=false
device_bus_width=8
device_rowbuffer_size=1024
device_size=536870912
devices_per_rank=8
dll=true
enable_dram_powerdown=false
eventq_index=0
image_file=
in_addr_map=true
kvm_map=true
max_accesses_per_row=16
null=false
page_policy=open_adaptive
power_model=
power_state=system.mem_ctrls08.dram.power_state
range=0:536870912:8:1048640:2097280:4194560:8389120
ranks_per_channel=2
read_buffer_size=32
tAAD=1
tBURST=5
tBURST_MAX=5
tBURST_MIN=5
tCCD_L=0
tCCD_L_WR=0
tCK=1
tCL=14
tCS=3
tPPD=0
tRAS=35
tRCD=14
tREFI=7800
tRFC=260
tRP=14
tRRD=6
tRRD_L=0
tRTP=8
tRTW=3
tWR=15
tWTR=8
tWTR_L=8
tXAW=30
tXP=6
tXPDLL=0
tXS=270
tXSDLL=0
two_cycle_activate=false
write_buffer_size=64

[system.mem_ctrls08.dram.power_state]
type=PowerState
clk_gate_bins=20
clk_gate_max=1000000000
clk_gate_min=1
default_state=UNDEFINED
eventq_index=0
leaders=
possible_states=

[system.mem_ctrls08.power_state]
type=PowerState
clk_gate_bins=20
clk_gate_max=1000000000
clk_gate_min=1
default_state=UNDEFINED
eventq_index=0
leaders=
possible_states=

[system.mem_ctrls09]
type=MemCtrl
children=dram power_state
clk_domain=system.clk_domain
command_window=10
dram=system.mem_ctrls09.dram
eventq_index=0
mem_sched_policy=frfcfs
min_writes_per_switch=16
nvm=Null
power_model=
power_state=system.mem_ctrls09.power_state
qos_policy=Null
qos_priorities=1
qos_priority_escalation=false
qos_q_policy=fifo
qos_requestors=               
qos_syncro_scheduler=false
qos_turnaround_policy=Null
static_backend_latency=10
static_frontend_latency=10
system=system
write_high_thresh_perc=85
write_low_thresh_perc=50
port=system.ruby.dir_cntrl9.memory_out_port

[system.mem_ctrls09.dram]
type=DRAMInterface
children=power_state
IDD0=0.055
IDD02=0.0
IDD2N=0.032
IDD2N2=0.0
IDD2P0=0.0
IDD2P02=0.0
IDD2P1=0.032
IDD2P12=0.0
IDD3N=0.038
IDD3N2=0.0
IDD3P0=0.0
IDD3P02=0.0
IDD3P1=0.038
IDD3P12=0.0
IDD4R=0.157
IDD4R2=0.0
IDD4W=0.125
IDD4W2=0.0
IDD5=0.23500000000000001
IDD52=0.0
IDD6=0.02
IDD62=0.0
VDD=1.5
VDD2=0.0
activation_limit=4
addr_mapping=RoRaBaCoCh
bank_groups_per_rank=0
banks_per_rank=8
beats_per_clock=2
burst_length=8
clk_domain=system.clk_domain
conf_table_reported=true
data_clock_sync=false
device_bus_width=8
device_rowbuffer_size=1024
device_size=536870912
devices_per_rank=8
dll=true
enable_dram_powerdown=false
eventq_index=0
image_file=
in_addr_map=true
kvm_map=true
max_accesses_per_row=16
null=false
page_policy=open_adaptive
power_model=
power_state=system.mem_ctrls09.dram.power_state
range=0:536870912:9:1048640:2097280:4194560:8389120
ranks_per_channel=2
read_buffer_size=32
tAAD=1
tBURST=5
tBURST_MAX=5
tBURST_MIN=5
tCCD_L=0
tCCD_L_WR=0
tCK=1
tCL=14
tCS=3
tPPD=0
tRAS=35
tRCD=14
tREFI=7800
tRFC=260
tRP=14
tRRD=6
tRRD_L=0
tRTP=8
tRTW=3
tWR=15
tWTR=8
tWTR_L=8
tXAW=30
tXP=6
tXPDLL=0
tXS=270
tXSDLL=0
two_cycle_activate=false
write_buffer_size=64

[system.mem_ctrls09.dram.power_state]
type=PowerState
clk_gate_bins=20
clk_gate_max=1000000000
clk_gate_min=1
default_state=UNDEFINED
eventq_index=0
leaders=
possible_states=

[system.mem_ctrls09.power_state]
type=PowerState
clk_gate_bins=20
clk_gate_max=1000000000
clk_gate_min=1
default_state=UNDEFINED
eventq_index=0
leaders=
possible_states=

[system.mem_ctrls10]
type=MemCtrl
children=dram power_state
clk_domain=system.clk_domain
command_window=10
dram=system.mem_ctrls10.dram
eventq_index=0
mem_sched_policy=frfcfs
min_writes_per_switch=16
nvm=Null
power_model=
power_state=system.mem_ctrls10.power_state
qos_policy=Null
qos_priorities=1
qos_priority_escalation=false
qos_q_policy=fifo
qos_requestors=               
qos_syncro_scheduler=false
qos_turnaround_policy=Null
static_backend_latency=10
static_frontend_latency=10
system=system
write_high_thresh_perc=85
write_low_thresh_perc=50
port=system.ruby.dir_cntrl10.memory_out_port

[system.mem_ctrls10.dram]
type=DRAMInterface
children=power_state
IDD0=0.055
IDD02=0.0
IDD2N=0.032
IDD2N2=0.0
IDD2P0=0.0
IDD2P02=0.0
IDD2P1=0.032
IDD2P12=0.0
IDD3N=0.038
IDD3N2=0.0
IDD3P0=0.0
IDD3P02=0.0
IDD3P1=0.038
IDD3P12=0.0
IDD4R=0.157
IDD4R2=0.0
IDD4W=0.125
IDD4W2=0.0
IDD5=0.23500000000000001
IDD52=0.0
IDD6=0.02
IDD62=0.0
VDD=1.5
VDD2=0.0
activation_limit=4
addr_mapping=RoRaBaCoCh
bank_groups_per_rank=0
banks_per_rank=8
beats_per_clock=2
burst_length=8
clk_domain=system.clk_domain
conf_table_reported=true
data_clock_sync=false
device_bus_width=8
device_rowbuffer_size=1024
device_size=536870912
devices_per_rank=8
dll=true
enable_dram_powerdown=false
eventq_index=0
image_file=
in_addr_map=true
kvm_map=true
max_accesses_per_row=16
null=false
page_policy=open_adaptive
power_model=
power_state=system.mem_ctrls10.dram.power_state
range=0:536870912:10:1048640:2097280:4194560:8389120
ranks_per_channel=2
read_buffer_size=32
tAAD=1
tBURST=5
tBURST_MAX=5
tBURST_MIN=5
tCCD_L=0
tCCD_L_WR=0
tCK=1
tCL=14
tCS=3
tPPD=0
tRAS=35
tRCD=14
tREFI=7800
tRFC=260
tRP=14
tRRD=6
tRRD_L=0
tRTP=8
tRTW=3
tWR=15
tWTR=8
tWTR_L=8
tXAW=30
tXP=6
tXPDLL=0
tXS=270
tXSDLL=0
two_cycle_activate=false
write_buffer_size=64

[system.mem_ctrls10.dram.power_state]
type=PowerState
clk_gate_bins=20
clk_gate_max=1000000000
clk_gate_min=1
default_state=UNDEFINED
eventq_index=0
leaders=
possible_states=

[system.mem_ctrls10.power_state]
type=PowerState
clk_gate_bins=20
clk_gate_max=1000000000
clk_gate_min=1
default_state=UNDEFINED
eventq_index=0
leaders=
possible_states=

[system.mem_ctrls11]
type=MemCtrl
children=dram power_state
clk_domain=system.clk_domain
command_window=10
dram=system.mem_ctrls11.dram
eventq_index=0
mem_sched_policy=frfcfs
min_writes_per_switch=16
nvm=Null
power_model=
power_state=system.mem_ctrls11.power_state
qos_policy=Null
qos_priorities=1
qos_priority_escalation=false
qos_q_policy=fifo
qos_requestors=               
qos_syncro_scheduler=false
qos_turnaround_policy=Null
static_backend_latency=10
static_frontend_latency=10
system=system
write_high_thresh_perc=85
write_low_thresh_perc=50
port=system.ruby.dir_cntrl11.memory_out_port

[system.mem_ctrls11.dram]
type=DRAMInterface
children=power_state
IDD0=0.055
IDD02=0.0
IDD2N=0.032
IDD2N2=0.0
IDD2P0=0.0
IDD2P02=0.0
IDD2P1=0.032
IDD2P12=0.0
IDD3N=0.038
IDD3N2=0.0
IDD3P0=0.0
IDD3P02=0.0
IDD3P1=0.038
IDD3P12=0.0
IDD4R=0.157
IDD4R2=0.0
IDD4W=0.125
IDD4W2=0.0
IDD5=0.23500000000000001
IDD52=0.0
IDD6=0.02
IDD62=0.0
VDD=1.5
VDD2=0.0
activation_limit=4
addr_mapping=RoRaBaCoCh
bank_groups_per_rank=0
banks_per_rank=8
beats_per_clock=2
burst_length=8
clk_domain=system.clk_domain
conf_table_reported=true
data_clock_sync=false
device_bus_width=8
device_rowbuffer_size=1024
device_size=536870912
devices_per_rank=8
dll=true
enable_dram_powerdown=false
eventq_index=0
image_file=
in_addr_map=true
kvm_map=true
max_accesses_per_row=16
null=false
page_policy=open_adaptive
power_model=
power_state=system.mem_ctrls11.dram.power_state
range=0:536870912:11:1048640:2097280:4194560:8389120
ranks_per_channel=2
read_buffer_size=32
tAAD=1
tBURST=5
tBURST_MAX=5
tBURST_MIN=5
tCCD_L=0
tCCD_L_WR=0
tCK=1
tCL=14
tCS=3
tPPD=0
tRAS=35
tRCD=14
tREFI=7800
tRFC=260
tRP=14
tRRD=6
tRRD_L=0
tRTP=8
tRTW=3
tWR=15
tWTR=8
tWTR_L=8
tXAW=30
tXP=6
tXPDLL=0
tXS=270
tXSDLL=0
two_cycle_activate=false
write_buffer_size=64

[system.mem_ctrls11.dram.power_state]
type=PowerState
clk_gate_bins=20
clk_gate_max=1000000000
clk_gate_min=1
default_state=UNDEFINED
eventq_index=0
leaders=
possible_states=

[system.mem_ctrls11.power_state]
type=PowerState
clk_gate_bins=20
clk_gate_max=1000000000
clk_gate_min=1
default_state=UNDEFINED
eventq_index=0
leaders=
possible_states=

[system.mem_ctrls12]
type=MemCtrl
children=dram power_state
clk_domain=system.clk_domain
command_window=10
dram=system.mem_ctrls12.dram
eventq_index=0
mem_sched_policy=frfcfs
min_writes_per_switch=16
nvm=Null
power_model=
power_state=system.mem_ctrls12.power_state
qos_policy=Null
qos_priorities=1
qos_priority_escalation=false
qos_q_policy=fifo
qos_requestors=               
qos_syncro_scheduler=false
qos_turnaround_policy=Null
static_backend_latency=10
static_frontend_latency=10
system=system
write_high_thresh_perc=85
write_low_thresh_perc=50
port=system.ruby.dir_cntrl12.memory_out_port

[system.mem_ctrls12.dram]
type=DRAMInterface
children=power_state
IDD0=0.055
IDD02=0.0
IDD2N=0.032
IDD2N2=0.0
IDD2P0=0.0
IDD2P02=0.0
IDD2P1=0.032
IDD2P12=0.0
IDD3N=0.038
IDD3N2=0.0
IDD3P0=0.0
IDD3P02=0.0
IDD3P1=0.038
IDD3P12=0.0
IDD4R=0.157
IDD4R2=0.0
IDD4W=0.125
IDD4W2=0.0
IDD5=0.23500000000000001
IDD52=0.0
IDD6=0.02
IDD62=0.0
VDD=1.5
VDD2=0.0
activation_limit=4
addr_mapping=RoRaBaCoCh
bank_groups_per_rank=0
banks_per_rank=8
beats_per_clock=2
burst_length=8
clk_domain=system.clk_domain
conf_table_reported=true
data_clock_sync=false
device_bus_width=8
device_rowbuffer_size=1024
device_size=536870912
devices_per_rank=8
dll=true
enable_dram_powerdown=false
eventq_index=0
image_file=
in_addr_map=true
kvm_map=true